/*--------------------------------*- C++ -*----------------------------------*\
  =========                 |
  \\      /  F ield         | OpenFOAM: The Open Source CFD Toolbox
   \\    /   O peration     | Website:  https://openfoam.org
    \\  /    A nd           | Version:  6
     \\/     M anipulation  |
\*---------------------------------------------------------------------------*/
FoamFile
{
    version     2.0;
    format      ascii;
    class       volScalarField;
    object      T;
}
// * * * * * * * * * * * * * * * * * * * * * * * * * * * * * * * * * * * * * //

dimensions      [0 0 0 1 0 0 0];

internalField   uniform 273;

boundaryField
{
    xmin
    {
        type            fixedValue;
        value           uniform 0;
    }

    xmax
    {
        type            fixedValue;
        value           uniform 50;
    }

    ymin
    {
        type            fixedValue;
        value           uniform 0;
    }

    ymax
    {
        type            fixedValue;
        value           uniform 100;
    }
   
    zmin
    {
        type            empty;
    }

    zmax
    {
        type            empty;
    }

}

// ************************************************************************* //
