/*--------------------------------*- C++ -*----------------------------------*\
  =========                 |
  \\      /  F ield         | OpenFOAM: The Open Source CFD Toolbox
   \\    /   O peration     | Website:  https://openfoam.org
    \\  /    A nd           | Version:  6
     \\/     M anipulation  |
\*---------------------------------------------------------------------------*/
FoamFile
{
    version     2.0;
    format      ascii;
    class       polyBoundaryMesh;
    location    "constant/polyMesh";
    object      boundary;
}
// * * * * * * * * * * * * * * * * * * * * * * * * * * * * * * * * * * * * * //

6
(
    xmin
    {
        type            wall;
        inGroups        1(wall);
        nFaces          30;
        startFace       3510;
    }
    xmax
    {
        type            wall;
        inGroups        1(wall);
        nFaces          30;
        startFace       3540;
    }
    ymin
    {
        type            wall;
        inGroups        1(wall);
        nFaces          60;
        startFace       3570;
    }
    ymax
    {
        type            wall;
        inGroups        1(wall);
        nFaces          60;
        startFace       3630;
    }
    zmin
    {
        type            empty;
        inGroups        1(empty);
        nFaces          1800;
        startFace       3690;
    }
    zmax
    {
        type            empty;
        inGroups        1(empty);
        nFaces          1800;
        startFace       5490;
    }
)

// ************************************************************************* //
