/*--------------------------------*- C++ -*----------------------------------*\
  =========                 |
  \\      /  F ield         | OpenFOAM: The Open Source CFD Toolbox
   \\    /   O peration     | Website:  https://openfoam.org
    \\  /    A nd           | Version:  6
     \\/     M anipulation  |
\*---------------------------------------------------------------------------*/
FoamFile
{
    version     2.0;
    format      ascii;
    class       polyBoundaryMesh;
    location    "constant/polyMesh";
    object      boundary;
}
// * * * * * * * * * * * * * * * * * * * * * * * * * * * * * * * * * * * * * //

6
(
    xmin
    {
        type            patch;
        nFaces          50;
        startFace       9850;
    }
    xmax
    {
        type            patch;
        nFaces          50;
        startFace       9900;
    }
    ymin
    {
        type            patch;
        nFaces          100;
        startFace       9950;
    }
    ymax
    {
        type            patch;
        nFaces          100;
        startFace       10050;
    }
    zmin
    {
        type            empty;
        inGroups        1(empty);
        nFaces          5000;
        startFace       10150;
    }
    zmax
    {
        type            empty;
        inGroups        1(empty);
        nFaces          5000;
        startFace       15150;
    }
)

// ************************************************************************* //
